/*---------------------------------------------------------------------------*\
  =========                 |
  \\      /  F ield         | OpenFOAM: The Open Source CFD Toolbox
   \\    /   O peration     | Website:  https://openfoam.org
    \\  /    A nd           | Version:  10
     \\/     M anipulation  |
\*---------------------------------------------------------------------------*/
Build  : 10-c4cf895ad8fa
Exec   : snappyHexMesh -overwrite
Date   : May 23 2023
Time   : 13:01:03
Host   : "NAOME-LAPTOP088"
PID    : 7933
I/O    : uncollated
Case   : /mnt/c/Users/hwb21208/DTCHullDoubleBody/DTCHullDoubleBody
nProcs : 1
sigFpe : Enabling floating point exception trapping (FOAM_SIGFPE).
fileModificationChecking : Monitoring run-time modified files using timeStampMaster (fileModificationSkew 10)
allowSystemOperations : Allowing user-supplied system call operations

// * * * * * * * * * * * * * * * * * * * * * * * * * * * * * * * * * * * * * //
Create time

Create mesh for time = 0

Read mesh in = 0.234375 s
Reading "snappyHexMeshDict"


Overall mesh bounding box  : (-26 -19 -16) (16 0 0.244)
Relative tolerance         : 1e-06
Absolute matching distance : 4.8876e-05

Reading refinement surfaces...
Read refinement surfaces in = 0.21875 s

Reading refinement regions...
Read refinement regions in = 0 s

Reading features...
Read edgeMesh DTC-scaled.eMesh
    points      : 927
    edges       : 911
    boundingBox : (-0.113503 -0.429241 0) (6.16209 0.429241 0.572322)

Refinement level according to distance to "DTC-scaled.eMesh" (927 points, 911 edges).
    level 0 for all cells within 0 metre.
Read features in = 0 s


Determining initial surface intersections
-----------------------------------------

Edge intersection testing:
    Number of edges             : 1702118
    Number of edges to retest   : 1702118
    Number of intersected edges : 14155
Calculated surface intersections in = 2.07812 s

Initial mesh : cells:552936  faces:1702118  points:596966
Cells per refinement level:
    0	552936

Adding patches for surface regions
----------------------------------

Patch Type                Region                        
----- ----                ------                        
hull:

6     wall                hull                          

Added patches in = 0.03125 s

Selecting distributor none
Cell selection insidePoints: 1((-0.7 0 0))

Refinement phase
----------------

Found point (-0.7 0 0) in cell 332963 on processor 0

Feature refinement iteration 0
------------------------------

Marked for refinement due to explicit features             : 0 cells.
Determined cells to refine in = 3.01562 s
Selected for feature refinement : 0 cells (out of 552936)
Stopping refining since too few cells selected.


Surface refinement iteration 0
------------------------------

Marked for refinement due to surface intersection          : 0 cells.
Determined cells to refine in = 0.03125 s
Selected for refinement : 0 cells (out of 552936)
Stopping refining since too few cells selected.


Removing mesh beyond surface intersections
------------------------------------------

Selecting all cells in regions containing any of the points in 1((-0.7 0 0))
Selected: 493069 cells.
Edge intersection testing:
    Number of edges             : 1533684
    Number of edges to retest   : 22334
    Number of intersected edges : 14155

Shell refinement iteration 0
----------------------------

Marked for refinement due to distance to explicit features : 0 cells.
Marked for refinement due to refinement shells             : 0 cells.
Determined cells to refine in = 8.45312 s
Selected for internal refinement : 0 cells (out of 493069)
Stopping refining since too few cells selected.


Dangling coarse cells refinement iteration 0
--------------------------------------------

Determined cells to refine in = 0 s
Selected for refinement : 0 cells (out of 493069)
Stopping refining since too few cells selected.


Dangling coarse cells refinement iteration 0
--------------------------------------------

Determined cells to refine in = 0.015625 s
Selected for refinement : 0 cells (out of 493069)
Stopping refining since too few cells selected.


Splitting mesh at surface intersections
---------------------------------------

Introducing baffles for 14155 faces that are intersected by the surface.

Edge intersection testing:
    Number of edges             : 1547678
    Number of edges to retest   : 95349
    Number of intersected edges : 28077
Created baffles in = 1.07812 s


After introducing baffles : cells:493069  faces:1547678  points:547854
Cells per refinement level:
    0	493069

Introducing baffles to block off problem cells
----------------------------------------------

markFacesOnProblemCells : marked 23793 additional internal faces to be converted into baffles.
Analyzed problem cells in = 0.8125 s


Introducing baffles to delete problem cells.

Edge intersection testing:
    Number of edges             : 1571471
    Number of edges to retest   : 74333
    Number of intersected edges : 28078
Created baffles in = 1.04688 s


After introducing baffles : cells:493069  faces:1571471  points:547854
Cells per refinement level:
    0	493069

Remove unreachable sections of mesh
-----------------------------------

Keeping all cells in regions containing any point in 1((-0.7 0 0))
Selected for keeping : 467990 cells.
Edge intersection testing:
    Number of edges             : 1447695
    Number of edges to retest   : 0
    Number of intersected edges : 14146
Split mesh in = 8.67188 s


After subsetting : cells:467990  faces:1447695  points:512434
Cells per refinement level:
    0	467990

Handling cells with snap problems
---------------------------------

Introducing baffles for 14146 faces that are intersected by the surface.

Edge intersection testing:
    Number of edges             : 1447695
    Number of edges to retest   : 48891
    Number of intersected edges : 14146
Created baffles in = 0.671875 s


After introducing baffles : cells:467990  faces:1447695  points:512434
Cells per refinement level:
    0	467990

Introducing baffles to block off problem cells
----------------------------------------------

markFacesOnProblemCells : marked 0 additional internal faces to be converted into baffles.
Analyzed problem cells in = 0.640625 s


Introducing baffles to delete problem cells.

Edge intersection testing:
    Number of edges             : 1447695
    Number of edges to retest   : 0
    Number of intersected edges : 14146
Created baffles in = 0.640625 s


After introducing baffles : cells:467990  faces:1447695  points:512434
Cells per refinement level:
    0	467990

Remove unreachable sections of mesh
-----------------------------------

Split mesh in = 7.64062 s


After subsetting : cells:467990  faces:1447695  points:512434
Cells per refinement level:
    0	467990

Merge free-standing baffles
---------------------------

freeStandingBaffles : detected 2 free-standing baffles out of 2

freeStandingBaffles : detected 2 planar (within 45 degrees) free-standing baffles out of 2

Detected free-standing baffles : 2
Edge intersection testing:
    Number of edges             : 1447693
    Number of edges to retest   : 2
    Number of intersected edges : 14144

Introducing baffles to block off problem cells
----------------------------------------------

markFacesOnProblemCells : marked 0 additional internal faces to be converted into baffles.
Analyzed problem cells in = 1.5625 s


Introducing baffles to delete problem cells.

Edge intersection testing:
    Number of edges             : 1447693
    Number of edges to retest   : 0
    Number of intersected edges : 14144
Created baffles in = 0.625 s


After introducing baffles : cells:467990  faces:1447693  points:512434
Cells per refinement level:
    0	467990
Merged free-standing baffles in = 0.015625 s


dupNonManifoldPoints : Found : 0 non-manifold points (out of 512434)
Edge intersection testing:
    Number of edges             : 1447693
    Number of edges to retest   : 0
    Number of intersected edges : 14144
Detected unsplittable baffles : 0

Merge refined boundary faces
----------------------------

Merging 0 sets of faces.

No faces merged ...

Merging all points on surface that
- are used by only two boundary faces and
- make an angle with a cosine of more than 0.707107.

No straight edges simplified and no points removed ...
Refined mesh : cells:467990  faces:1447693  points:512434
Cells per refinement level:
    0	467990
Writing mesh to time constant
Wrote mesh in = 1.09375 s.
Mesh refined in = 36.0156 s.

Morphing phase
--------------


Snapping to features in 10 iterations ...
Constructing mesh displacer ...
Using mesh parameters 
{
    maxNonOrtho     70;
    maxBoundarySkewness 20;
    maxInternalSkewness 4;
    maxConcave      80;
    minVol          -1e+30;
    minTetQuality   1e-30;
    minTwist        0.05;
    minDeterminant  0.001;
    minFaceWeight   0.05;
    minVolRatio     0.01;
    nSmoothScale    4;
    errorReduction  0.75;
    relaxed
    {
        maxNonOrtho     75;
    }
}


Checking initial mesh ...
Checking faces in error :
    non-orthogonality > 70  degrees                        : 0
    faces with face-decomposition tet quality < 1e-30      : 0
    faces with concavity > 80  degrees                     : 0
    faces with skewness > 4   (internal) or 20  (boundary) : 0
    faces with interpolation weights (0..1)  < 0.05        : 0
    faces with volume ratio of neighbour cells < 0.01      : 0
    faces with face twist < 0.05                           : 0
    faces on cells with determinant < 0.001                : 0
Detected 0 illegal faces (concave, zero area or negative cell pyramid volume)
Checked initial mesh in = 0.734375 s


Smoothing patch points ...
Smoothing iteration 0
Found 0 non-manifold point(s).

Scaling iteration 0
Moving mesh using displacement scaling : min:1  max:1
Checking faces in error :
    non-orthogonality > 70  degrees                        : 0
    faces with face-decomposition tet quality < 1e-30      : 0
    faces with concavity > 80  degrees                     : 0
    faces with skewness > 4   (internal) or 20  (boundary) : 0
    faces with interpolation weights (0..1)  < 0.05        : 0
    faces with volume ratio of neighbour cells < 0.01      : 0
    faces with face twist < 0.05                           : 0
    faces on cells with determinant < 0.001                : 0
Successfully moved mesh

Smoothing iteration 1
Found 0 non-manifold point(s).

Scaling iteration 0
Moving mesh using displacement scaling : min:1  max:1
Checking faces in error :
    non-orthogonality > 70  degrees                        : 0
    faces with face-decomposition tet quality < 1e-30      : 0
    faces with concavity > 80  degrees                     : 0
    faces with skewness > 4   (internal) or 20  (boundary) : 0
    faces with interpolation weights (0..1)  < 0.05        : 0
    faces with volume ratio of neighbour cells < 0.01      : 0
    faces with face twist < 0.05                           : 0
    faces on cells with determinant < 0.001                : 0
Successfully moved mesh

Smoothing iteration 2
Found 0 non-manifold point(s).

Scaling iteration 0
Moving mesh using displacement scaling : min:1  max:1
Checking faces in error :
    non-orthogonality > 70  degrees                        : 0
    faces with face-decomposition tet quality < 1e-30      : 0
    faces with concavity > 80  degrees                     : 0
    faces with skewness > 4   (internal) or 20  (boundary) : 0
    faces with interpolation weights (0..1)  < 0.05        : 0
    faces with volume ratio of neighbour cells < 0.01      : 0
    faces with face twist < 0.05                           : 0
    faces on cells with determinant < 0.001                : 0
Successfully moved mesh

Patch points smoothed in = 3.4375 s



Morph iteration 0
-----------------
Calculating patchDisplacement as distance to nearest surface point ...
Wanted displacement : average:0.00375034 min:7.95307e-07 max:0.00984474
Calculated surface displacement in = 0.03125 s


Detecting near surfaces ...
Overriding nearest with intersection of close gaps at 30 out of 14586 points.
Overriding displacement on features :
   implicit features    : false
   explicit features    : true
   multi-patch features : false

Detected 0 baffle edges out of 28729 edges.
Initially selected 880 points out of 14586 for reverse attraction.
Selected 1802 points out of 14586 for reverse attraction.
Stringing feature edges : changed 19 points
Stringing feature edges : changed 8 points
Stringing feature edges : changed 12 points
Stringing feature edges : changed 12 points
Stringing feature edges : changed 12 points
Stringing feature edges : changed 10 points
Stringing feature edges : changed 11 points
Stringing feature edges : changed 10 points
Stringing feature edges : changed 13 points
Stringing feature edges : changed 10 points
Stringing feature edges : changed 9 points
Stringing feature edges : changed 9 points
Stringing feature edges : changed 11 points
Stringing feature edges : changed 9 points
Stringing feature edges : changed 8 points
Stringing feature edges : changed 10 points
Stringing feature edges : changed 8 points
Stringing feature edges : changed 10 points
Stringing feature edges : changed 10 points
Stringing feature edges : changed 11 points
Stringing feature edges : changed 7 points
Stringing feature edges : changed 9 points
Stringing feature edges : changed 7 points
Stringing feature edges : changed 9 points
Stringing feature edges : changed 13 points
Stringing feature edges : changed 9 points
Stringing feature edges : changed 7 points
Stringing feature edges : changed 8 points
Stringing feature edges : changed 7 points
Stringing feature edges : changed 15 points
Stringing feature edges : changed 12 points
Stringing feature edges : changed 8 points
Stringing feature edges : changed 8 points
Stringing feature edges : changed 8 points
Stringing feature edges : changed 7 points
Stringing feature edges : changed 10 points
Stringing feature edges : changed 12 points
Stringing feature edges : changed 11 points
Stringing feature edges : changed 10 points
Stringing feature edges : changed 11 points
Stringing feature edges : changed 10 points
Stringing feature edges : changed 10 points
Stringing feature edges : changed 13 points
Stringing feature edges : changed 11 points
Stringing feature edges : changed 10 points
Stringing feature edges : changed 11 points
Stringing feature edges : changed 10 points
Stringing feature edges : changed 10 points
Stringing feature edges : changed 11 points
Stringing feature edges : changed 11 points
Stringing feature edges : changed 11 points
Stringing feature edges : changed 11 points
Stringing feature edges : changed 10 points
Stringing feature edges : changed 10 points
Stringing feature edges : changed 11 points
Stringing feature edges : changed 10 points
Stringing feature edges : changed 11 points
Stringing feature edges : changed 13 points
Stringing feature edges : changed 10 points
Stringing feature edges : changed 10 points
Stringing feature edges : changed 11 points
Stringing feature edges : changed 10 points
Stringing feature edges : changed 10 points
Stringing feature edges : changed 11 points
Stringing feature edges : changed 7 points
Stringing feature edges : changed 6 points
Stringing feature edges : changed 5 points
Stringing feature edges : changed 5 points
Stringing feature edges : changed 6 points
Stringing feature edges : changed 5 points
Stringing feature edges : changed 5 points
Stringing feature edges : changed 7 points
Stringing feature edges : changed 5 points
Stringing feature edges : changed 8 points
Stringing feature edges : changed 5 points
Stringing feature edges : changed 5 points
Stringing feature edges : changed 5 points
Stringing feature edges : changed 5 points
Stringing feature edges : changed 5 points
Stringing feature edges : changed 5 points
Stringing feature edges : changed 6 points
Stringing feature edges : changed 6 points
Stringing feature edges : changed 7 points
Stringing feature edges : changed 5 points
Stringing feature edges : changed 5 points
Stringing feature edges : changed 6 points
Stringing feature edges : changed 5 points
Stringing feature edges : changed 5 points
Stringing feature edges : changed 5 points
Stringing feature edges : changed 5 points
Stringing feature edges : changed 5 points
Stringing feature edges : changed 1 points
Stringing feature edges : changed 0 points
Attraction:
     linear   : max:(0.000517513 0.00188987 0.00964777) avg:(1.49646e-05 0.000142546 0.00250536)
     feature  : max:(-0.00945318 0 0.00719526) avg:(-9.43888e-06 -6.48184e-05 3.82475e-05)
Feature analysis : total master points:14586 attraction to :
    feature point   : 1
    feature edge    : 870
    nearest surface : 0
    rest            : 13715

--> FOAM Warning : Displacement (-7.98239e-07 -4.24424e-06 -2.80504e-06) at mesh point 408725 coord (5.13159 -0.241503 0.223603) points through the surrounding patch faces
Smoothing displacement ...
Iteration 0
Iteration 10
Iteration 20
Iteration 30
Iteration 40
Iteration 50
Iteration 60
Iteration 70
Iteration 80
Iteration 90
Displacement smoothed in = 3.3125 s


Moving mesh ...

Iteration 0
Moving mesh using displacement scaling : min:1  max:1
Checking faces in error :
    non-orthogonality > 70  degrees                        : 0
    faces with face-decomposition tet quality < 1e-30      : 0
    faces with concavity > 80  degrees                     : 0
    faces with skewness > 4   (internal) or 20  (boundary) : 0
    faces with interpolation weights (0..1)  < 0.05        : 0
    faces with volume ratio of neighbour cells < 0.01      : 0
    faces with face twist < 0.05                           : 0
    faces on cells with determinant < 0.001                : 0
Successfully moved mesh
Moved mesh in = 1.01562 s



Morph iteration 1
-----------------
Calculating patchDisplacement as distance to nearest surface point ...
Wanted displacement : average:0.00346412 min:3.84404e-07 max:0.00925395
Calculated surface displacement in = 0.03125 s


Detecting near surfaces ...
Overriding nearest with intersection of close gaps at 31 out of 14586 points.
Overriding displacement on features :
   implicit features    : false
   explicit features    : true
   multi-patch features : false

Detected 0 baffle edges out of 28729 edges.
Initially selected 880 points out of 14586 for reverse attraction.
Selected 1802 points out of 14586 for reverse attraction.
Stringing feature edges : changed 18 points
Stringing feature edges : changed 8 points
Stringing feature edges : changed 12 points
Stringing feature edges : changed 12 points
Stringing feature edges : changed 12 points
Stringing feature edges : changed 10 points
Stringing feature edges : changed 11 points
Stringing feature edges : changed 10 points
Stringing feature edges : changed 13 points
Stringing feature edges : changed 10 points
Stringing feature edges : changed 9 points
Stringing feature edges : changed 9 points
Stringing feature edges : changed 11 points
Stringing feature edges : changed 9 points
Stringing feature edges : changed 8 points
Stringing feature edges : changed 10 points
Stringing feature edges : changed 8 points
Stringing feature edges : changed 10 points
Stringing feature edges : changed 10 points
Stringing feature edges : changed 11 points
Stringing feature edges : changed 7 points
Stringing feature edges : changed 9 points
Stringing feature edges : changed 7 points
Stringing feature edges : changed 9 points
Stringing feature edges : changed 13 points
Stringing feature edges : changed 9 points
Stringing feature edges : changed 7 points
Stringing feature edges : changed 8 points
Stringing feature edges : changed 7 points
Stringing feature edges : changed 15 points
Stringing feature edges : changed 12 points
Stringing feature edges : changed 8 points
Stringing feature edges : changed 8 points
Stringing feature edges : changed 8 points
Stringing feature edges : changed 7 points
Stringing feature edges : changed 10 points
Stringing feature edges : changed 12 points
Stringing feature edges : changed 11 points
Stringing feature edges : changed 10 points
Stringing feature edges : changed 11 points
Stringing feature edges : changed 10 points
Stringing feature edges : changed 10 points
Stringing feature edges : changed 13 points
Stringing feature edges : changed 11 points
Stringing feature edges : changed 10 points
Stringing feature edges : changed 11 points
Stringing feature edges : changed 10 points
Stringing feature edges : changed 10 points
Stringing feature edges : changed 11 points
Stringing feature edges : changed 11 points
Stringing feature edges : changed 11 points
Stringing feature edges : changed 11 points
Stringing feature edges : changed 10 points
Stringing feature edges : changed 10 points
Stringing feature edges : changed 11 points
Stringing feature edges : changed 10 points
Stringing feature edges : changed 11 points
Stringing feature edges : changed 13 points
Stringing feature edges : changed 10 points
Stringing feature edges : changed 10 points
Stringing feature edges : changed 11 points
Stringing feature edges : changed 10 points
Stringing feature edges : changed 10 points
Stringing feature edges : changed 11 points
Stringing feature edges : changed 7 points
Stringing feature edges : changed 6 points
Stringing feature edges : changed 5 points
Stringing feature edges : changed 5 points
Stringing feature edges : changed 6 points
Stringing feature edges : changed 5 points
Stringing feature edges : changed 5 points
Stringing feature edges : changed 7 points
Stringing feature edges : changed 5 points
Stringing feature edges : changed 8 points
Stringing feature edges : changed 5 points
Stringing feature edges : changed 5 points
Stringing feature edges : changed 5 points
Stringing feature edges : changed 5 points
Stringing feature edges : changed 5 points
Stringing feature edges : changed 5 points
Stringing feature edges : changed 6 points
Stringing feature edges : changed 6 points
Stringing feature edges : changed 7 points
Stringing feature edges : changed 5 points
Stringing feature edges : changed 5 points
Stringing feature edges : changed 6 points
Stringing feature edges : changed 5 points
Stringing feature edges : changed 5 points
Stringing feature edges : changed 5 points
Stringing feature edges : changed 5 points
Stringing feature edges : changed 5 points
Stringing feature edges : changed 1 points
Stringing feature edges : changed 0 points
Attraction:
     linear   : max:(0.000486457 0.00177646 0.0090688) avg:(1.26376e-05 0.000134799 0.00226852)
     feature  : max:(-0.0094866 0 0.00715114) avg:(-9.60193e-06 -6.01266e-05 3.4158e-05)
Feature analysis : total master points:14586 attraction to :
    feature point   : 1
    feature edge    : 870
    nearest surface : 0
    rest            : 13715

--> FOAM Warning : Displacement (1.83108e-05 -8.88452e-05 -7.28205e-05) at mesh point 171329 coord (5.12536 -0.248391 0.22953) points through the surrounding patch faces
Smoothing displacement ...
Iteration 0
Iteration 10
Iteration 20
Iteration 30
Iteration 40
Iteration 50
Iteration 60
Iteration 70
Iteration 80
Iteration 90
Displacement smoothed in = 3.1875 s


Moving mesh ...

Iteration 0
Moving mesh using displacement scaling : min:1  max:1
Checking faces in error :
    non-orthogonality > 70  degrees                        : 0
    faces with face-decomposition tet quality < 1e-30      : 0
    faces with concavity > 80  degrees                     : 0
    faces with skewness > 4   (internal) or 20  (boundary) : 0
    faces with interpolation weights (0..1)  < 0.05        : 0
    faces with volume ratio of neighbour cells < 0.01      : 0
    faces with face twist < 0.05                           : 0
    faces on cells with determinant < 0.001                : 0
Successfully moved mesh
Moved mesh in = 1.0625 s



Morph iteration 2
-----------------
Calculating patchDisplacement as distance to nearest surface point ...
Wanted displacement : average:0.00294272 min:3.70142e-08 max:0.00826385
Calculated surface displacement in = 0.03125 s


Detecting near surfaces ...
Overriding nearest with intersection of close gaps at 34 out of 14586 points.
Overriding displacement on features :
   implicit features    : false
   explicit features    : true
   multi-patch features : false

Detected 0 baffle edges out of 28729 edges.
Initially selected 881 points out of 14586 for reverse attraction.
Selected 1802 points out of 14586 for reverse attraction.
Stringing feature edges : changed 17 points
Stringing feature edges : changed 8 points
Stringing feature edges : changed 12 points
Stringing feature edges : changed 12 points
Stringing feature edges : changed 12 points
Stringing feature edges : changed 10 points
Stringing feature edges : changed 11 points
Stringing feature edges : changed 10 points
Stringing feature edges : changed 13 points
Stringing feature edges : changed 10 points
Stringing feature edges : changed 9 points
Stringing feature edges : changed 9 points
Stringing feature edges : changed 11 points
Stringing feature edges : changed 9 points
Stringing feature edges : changed 8 points
Stringing feature edges : changed 10 points
Stringing feature edges : changed 8 points
Stringing feature edges : changed 10 points
Stringing feature edges : changed 10 points
Stringing feature edges : changed 11 points
Stringing feature edges : changed 7 points
Stringing feature edges : changed 9 points
Stringing feature edges : changed 7 points
Stringing feature edges : changed 9 points
Stringing feature edges : changed 13 points
Stringing feature edges : changed 9 points
Stringing feature edges : changed 7 points
Stringing feature edges : changed 8 points
Stringing feature edges : changed 7 points
Stringing feature edges : changed 15 points
Stringing feature edges : changed 12 points
Stringing feature edges : changed 8 points
Stringing feature edges : changed 8 points
Stringing feature edges : changed 8 points
Stringing feature edges : changed 7 points
Stringing feature edges : changed 10 points
Stringing feature edges : changed 12 points
Stringing feature edges : changed 11 points
Stringing feature edges : changed 10 points
Stringing feature edges : changed 11 points
Stringing feature edges : changed 10 points
Stringing feature edges : changed 10 points
Stringing feature edges : changed 13 points
Stringing feature edges : changed 11 points
Stringing feature edges : changed 10 points
Stringing feature edges : changed 11 points
Stringing feature edges : changed 10 points
Stringing feature edges : changed 10 points
Stringing feature edges : changed 11 points
Stringing feature edges : changed 11 points
Stringing feature edges : changed 11 points
Stringing feature edges : changed 11 points
Stringing feature edges : changed 10 points
Stringing feature edges : changed 10 points
Stringing feature edges : changed 11 points
Stringing feature edges : changed 10 points
Stringing feature edges : changed 11 points
Stringing feature edges : changed 13 points
Stringing feature edges : changed 10 points
Stringing feature edges : changed 10 points
Stringing feature edges : changed 11 points
Stringing feature edges : changed 10 points
Stringing feature edges : changed 10 points
Stringing feature edges : changed 11 points
Stringing feature edges : changed 7 points
Stringing feature edges : changed 6 points
Stringing feature edges : changed 5 points
Stringing feature edges : changed 5 points
Stringing feature edges : changed 6 points
Stringing feature edges : changed 5 points
Stringing feature edges : changed 5 points
Stringing feature edges : changed 7 points
Stringing feature edges : changed 5 points
Stringing feature edges : changed 8 points
Stringing feature edges : changed 5 points
Stringing feature edges : changed 5 points
Stringing feature edges : changed 5 points
Stringing feature edges : changed 5 points
Stringing feature edges : changed 5 points
Stringing feature edges : changed 5 points
Stringing feature edges : changed 6 points
Stringing feature edges : changed 6 points
Stringing feature edges : changed 7 points
Stringing feature edges : changed 5 points
Stringing feature edges : changed 5 points
Stringing feature edges : changed 6 points
Stringing feature edges : changed 5 points
Stringing feature edges : changed 5 points
Stringing feature edges : changed 5 points
Stringing feature edges : changed 5 points
Stringing feature edges : changed 5 points
Stringing feature edges : changed 1 points
Stringing feature edges : changed 0 points
Attraction:
     linear   : max:(0.00102566 0.00331303 -0.00750087) avg:(8.96397e-06 0.000115269 0.00183926)
     feature  : max:(-0.00794378 0 0.00791155) avg:(-1.01808e-05 -5.18469e-05 2.71738e-05)
Feature analysis : total master points:14586 attraction to :
    feature point   : 2
    feature edge    : 870
    nearest surface : 0
    rest            : 13714

--> FOAM Warning : Displacement (-7.4642e-06 -2.31003e-05 -2.05919e-05) at mesh point 171329 coord (5.12538 -0.248479 0.229457) points through the surrounding patch faces
Smoothing displacement ...
Iteration 0
Iteration 10
Iteration 20
Iteration 30
Iteration 40
Iteration 50
Iteration 60
Iteration 70
Iteration 80
Iteration 90
Displacement smoothed in = 3.07812 s


Moving mesh ...

Iteration 0
Moving mesh using displacement scaling : min:1  max:1
Checking faces in error :
    non-orthogonality > 70  degrees                        : 0
    faces with face-decomposition tet quality < 1e-30      : 0
    faces with concavity > 80  degrees                     : 0
    faces with skewness > 4   (internal) or 20  (boundary) : 0
    faces with interpolation weights (0..1)  < 0.05        : 0
    faces with volume ratio of neighbour cells < 0.01      : 0
    faces with face twist < 0.05                           : 0
    faces on cells with determinant < 0.001                : 0
Successfully moved mesh
Moved mesh in = 1.03125 s



Morph iteration 3
-----------------
Calculating patchDisplacement as distance to nearest surface point ...
Wanted displacement : average:0.0022929 min:5.63315e-07 max:0.0079982
Calculated surface displacement in = 0.03125 s


Detecting near surfaces ...
Overriding nearest with intersection of close gaps at 36 out of 14586 points.
Overriding displacement on features :
   implicit features    : false
   explicit features    : true
   multi-patch features : false

Detected 0 baffle edges out of 28729 edges.
Initially selected 882 points out of 14586 for reverse attraction.
Selected 1804 points out of 14586 for reverse attraction.
Stringing feature edges : changed 16 points
Stringing feature edges : changed 8 points
Stringing feature edges : changed 12 points
Stringing feature edges : changed 12 points
Stringing feature edges : changed 12 points
Stringing feature edges : changed 10 points
Stringing feature edges : changed 11 points
Stringing feature edges : changed 10 points
Stringing feature edges : changed 13 points
Stringing feature edges : changed 10 points
Stringing feature edges : changed 9 points
Stringing feature edges : changed 9 points
Stringing feature edges : changed 11 points
Stringing feature edges : changed 9 points
Stringing feature edges : changed 8 points
Stringing feature edges : changed 10 points
Stringing feature edges : changed 8 points
Stringing feature edges : changed 10 points
Stringing feature edges : changed 10 points
Stringing feature edges : changed 11 points
Stringing feature edges : changed 7 points
Stringing feature edges : changed 9 points
Stringing feature edges : changed 7 points
Stringing feature edges : changed 9 points
Stringing feature edges : changed 13 points
Stringing feature edges : changed 9 points
Stringing feature edges : changed 7 points
Stringing feature edges : changed 8 points
Stringing feature edges : changed 7 points
Stringing feature edges : changed 15 points
Stringing feature edges : changed 12 points
Stringing feature edges : changed 8 points
Stringing feature edges : changed 8 points
Stringing feature edges : changed 8 points
Stringing feature edges : changed 7 points
Stringing feature edges : changed 10 points
Stringing feature edges : changed 12 points
Stringing feature edges : changed 11 points
Stringing feature edges : changed 10 points
Stringing feature edges : changed 11 points
Stringing feature edges : changed 10 points
Stringing feature edges : changed 10 points
Stringing feature edges : changed 13 points
Stringing feature edges : changed 11 points
Stringing feature edges : changed 10 points
Stringing feature edges : changed 11 points
Stringing feature edges : changed 10 points
Stringing feature edges : changed 10 points
Stringing feature edges : changed 11 points
Stringing feature edges : changed 11 points
Stringing feature edges : changed 11 points
Stringing feature edges : changed 11 points
Stringing feature edges : changed 10 points
Stringing feature edges : changed 10 points
Stringing feature edges : changed 11 points
Stringing feature edges : changed 10 points
Stringing feature edges : changed 11 points
Stringing feature edges : changed 13 points
Stringing feature edges : changed 10 points
Stringing feature edges : changed 10 points
Stringing feature edges : changed 11 points
Stringing feature edges : changed 10 points
Stringing feature edges : changed 10 points
Stringing feature edges : changed 11 points
Stringing feature edges : changed 7 points
Stringing feature edges : changed 6 points
Stringing feature edges : changed 5 points
Stringing feature edges : changed 5 points
Stringing feature edges : changed 6 points
Stringing feature edges : changed 5 points
Stringing feature edges : changed 5 points
Stringing feature edges : changed 7 points
Stringing feature edges : changed 5 points
Stringing feature edges : changed 8 points
Stringing feature edges : changed 5 points
Stringing feature edges : changed 5 points
Stringing feature edges : changed 5 points
Stringing feature edges : changed 5 points
Stringing feature edges : changed 5 points
Stringing feature edges : changed 5 points
Stringing feature edges : changed 6 points
Stringing feature edges : changed 6 points
Stringing feature edges : changed 7 points
Stringing feature edges : changed 5 points
Stringing feature edges : changed 5 points
Stringing feature edges : changed 6 points
Stringing feature edges : changed 5 points
Stringing feature edges : changed 5 points
Stringing feature edges : changed 5 points
Stringing feature edges : changed 5 points
Stringing feature edges : changed 5 points
Stringing feature edges : changed 1 points
Stringing feature edges : changed 0 points
Attraction:
     linear   : max:(0.000992687 0.00320653 -0.00725975) avg:(4.59516e-06 8.83065e-05 0.00131707)
     feature  : max:(-0.00746902 0 0.00638565) avg:(-9.83017e-06 -4.17961e-05 1.96405e-05)
Feature analysis : total master points:14586 attraction to :
    feature point   : 2
    feature edge    : 870
    nearest surface : 0
    rest            : 13714

--> FOAM Warning : Displacement (2.99395e-07 4.13825e-06 -3.41728e-05) at mesh point 406709 coord (1.49962 -0.235738 0.0407238) points through the surrounding patch faces
Smoothing displacement ...
Iteration 0
Iteration 10
Iteration 20
Iteration 30
Iteration 40
Iteration 50
Iteration 60
Iteration 70
Iteration 80
Iteration 90
Displacement smoothed in = 3.17188 s


Moving mesh ...

Iteration 0
Moving mesh using displacement scaling : min:1  max:1
Checking faces in error :
    non-orthogonality > 70  degrees                        : 0
    faces with face-decomposition tet quality < 1e-30      : 0
    faces with concavity > 80  degrees                     : 0
    faces with skewness > 4   (internal) or 20  (boundary) : 0
    faces with interpolation weights (0..1)  < 0.05        : 0
    faces with volume ratio of neighbour cells < 0.01      : 0
    faces with face twist < 0.05                           : 0
    faces on cells with determinant < 0.001                : 0
Successfully moved mesh
Moved mesh in = 1.03125 s



Morph iteration 4
-----------------
Calculating patchDisplacement as distance to nearest surface point ...
Wanted displacement : average:0.00163041 min:3.0296e-07 max:0.0076099
Calculated surface displacement in = 0.015625 s


Detecting near surfaces ...
Overriding nearest with intersection of close gaps at 36 out of 14586 points.
Overriding displacement on features :
   implicit features    : false
   explicit features    : true
   multi-patch features : false

Detected 0 baffle edges out of 28729 edges.
Initially selected 882 points out of 14586 for reverse attraction.
Selected 1805 points out of 14586 for reverse attraction.
Stringing feature edges : changed 13 points
Stringing feature edges : changed 7 points
Stringing feature edges : changed 11 points
Stringing feature edges : changed 10 points
Stringing feature edges : changed 11 points
Stringing feature edges : changed 9 points
Stringing feature edges : changed 9 points
Stringing feature edges : changed 9 points
Stringing feature edges : changed 12 points
Stringing feature edges : changed 8 points
Stringing feature edges : changed 8 points
Stringing feature edges : changed 8 points
Stringing feature edges : changed 9 points
Stringing feature edges : changed 8 points
Stringing feature edges : changed 7 points
Stringing feature edges : changed 8 points
Stringing feature edges : changed 7 points
Stringing feature edges : changed 9 points
Stringing feature edges : changed 8 points
Stringing feature edges : changed 10 points
Stringing feature edges : changed 6 points
Stringing feature edges : changed 7 points
Stringing feature edges : changed 6 points
Stringing feature edges : changed 8 points
Stringing feature edges : changed 11 points
Stringing feature edges : changed 8 points
Stringing feature edges : changed 6 points
Stringing feature edges : changed 6 points
Stringing feature edges : changed 6 points
Stringing feature edges : changed 14 points
Stringing feature edges : changed 10 points
Stringing feature edges : changed 7 points
Stringing feature edges : changed 7 points
Stringing feature edges : changed 6 points
Stringing feature edges : changed 6 points
Stringing feature edges : changed 9 points
Stringing feature edges : changed 10 points
Stringing feature edges : changed 10 points
Stringing feature edges : changed 9 points
Stringing feature edges : changed 9 points
Stringing feature edges : changed 9 points
Stringing feature edges : changed 9 points
Stringing feature edges : changed 11 points
Stringing feature edges : changed 10 points
Stringing feature edges : changed 9 points
Stringing feature edges : changed 9 points
Stringing feature edges : changed 9 points
Stringing feature edges : changed 9 points
Stringing feature edges : changed 9 points
Stringing feature edges : changed 10 points
Stringing feature edges : changed 10 points
Stringing feature edges : changed 9 points
Stringing feature edges : changed 9 points
Stringing feature edges : changed 9 points
Stringing feature edges : changed 9 points
Stringing feature edges : changed 9 points
Stringing feature edges : changed 10 points
Stringing feature edges : changed 11 points
Stringing feature edges : changed 9 points
Stringing feature edges : changed 9 points
Stringing feature edges : changed 9 points
Stringing feature edges : changed 9 points
Stringing feature edges : changed 9 points
Stringing feature edges : changed 9 points
Stringing feature edges : changed 10 points
Stringing feature edges : changed 10 points
Stringing feature edges : changed 9 points
Stringing feature edges : changed 9 points
Stringing feature edges : changed 10 points
Stringing feature edges : changed 9 points
Stringing feature edges : changed 9 points
Stringing feature edges : changed 11 points
Stringing feature edges : changed 9 points
Stringing feature edges : changed 12 points
Stringing feature edges : changed 9 points
Stringing feature edges : changed 9 points
Stringing feature edges : changed 9 points
Stringing feature edges : changed 9 points
Stringing feature edges : changed 9 points
Stringing feature edges : changed 9 points
Stringing feature edges : changed 10 points
Stringing feature edges : changed 10 points
Stringing feature edges : changed 11 points
Stringing feature edges : changed 9 points
Stringing feature edges : changed 9 points
Stringing feature edges : changed 9 points
Stringing feature edges : changed 5 points
Stringing feature edges : changed 5 points
Stringing feature edges : changed 5 points
Stringing feature edges : changed 5 points
Stringing feature edges : changed 5 points
Stringing feature edges : changed 1 points
Stringing feature edges : changed 0 points
Attraction:
     linear   : max:(0.000873224 0.00253868 -0.00712062) avg:(1.33432e-06 5.92954e-05 0.000818606)
     feature  : max:(-0.0041556 0 0.00731778) avg:(-8.69384e-06 -3.16872e-05 1.28864e-05)
Feature analysis : total master points:14586 attraction to :
    feature point   : 2
    feature edge    : 869
    nearest surface : 0
    rest            : 13715

--> FOAM Warning : Displacement (-3.7562e-05 -0.000107322 -0.00033623) at mesh point 406709 coord (1.49962 -0.235734 0.0406897) points through the surrounding patch faces
Smoothing displacement ...
Iteration 0
Iteration 10
Iteration 20
Iteration 30
Iteration 40
Iteration 50
Iteration 60
Iteration 70
Iteration 80
Iteration 90
Displacement smoothed in = 3.34375 s


Moving mesh ...

Iteration 0
Moving mesh using displacement scaling : min:1  max:1
Checking faces in error :
    non-orthogonality > 70  degrees                        : 0
    faces with face-decomposition tet quality < 1e-30      : 1
    faces with concavity > 80  degrees                     : 0
    faces with skewness > 4   (internal) or 20  (boundary) : 0
    faces with interpolation weights (0..1)  < 0.05        : 0
    faces with volume ratio of neighbour cells < 0.01      : 0
    faces with face twist < 0.05                           : 0
    faces on cells with determinant < 0.001                : 0

Iteration 1
Moving mesh using displacement scaling : min:0.75  max:1
Checking faces in error :
    non-orthogonality > 70  degrees                        : 0
    faces with face-decomposition tet quality < 1e-30      : 0
    faces with concavity > 80  degrees                     : 0
    faces with skewness > 4   (internal) or 20  (boundary) : 0
    faces with interpolation weights (0..1)  < 0.05        : 0
    faces with volume ratio of neighbour cells < 0.01      : 0
    faces with face twist < 0.05                           : 0
    faces on cells with determinant < 0.001                : 0
Successfully moved mesh
Moved mesh in = 1.71875 s



Morph iteration 5
-----------------
Calculating patchDisplacement as distance to nearest surface point ...
Wanted displacement : average:0.00104369 min:2.45005e-08 max:0.00714348
Calculated surface displacement in = 0.015625 s


Detecting near surfaces ...
Overriding nearest with intersection of close gaps at 40 out of 14586 points.
Overriding displacement on features :
   implicit features    : false
   explicit features    : true
   multi-patch features : false

Detected 0 baffle edges out of 28729 edges.
Initially selected 883 points out of 14586 for reverse attraction.
Selected 1805 points out of 14586 for reverse attraction.
Stringing feature edges : changed 12 points
Stringing feature edges : changed 7 points
Stringing feature edges : changed 11 points
Stringing feature edges : changed 10 points
Stringing feature edges : changed 11 points
Stringing feature edges : changed 9 points
Stringing feature edges : changed 9 points
Stringing feature edges : changed 9 points
Stringing feature edges : changed 12 points
Stringing feature edges : changed 8 points
Stringing feature edges : changed 8 points
Stringing feature edges : changed 8 points
Stringing feature edges : changed 9 points
Stringing feature edges : changed 8 points
Stringing feature edges : changed 7 points
Stringing feature edges : changed 8 points
Stringing feature edges : changed 7 points
Stringing feature edges : changed 9 points
Stringing feature edges : changed 8 points
Stringing feature edges : changed 10 points
Stringing feature edges : changed 6 points
Stringing feature edges : changed 7 points
Stringing feature edges : changed 6 points
Stringing feature edges : changed 8 points
Stringing feature edges : changed 11 points
Stringing feature edges : changed 8 points
Stringing feature edges : changed 6 points
Stringing feature edges : changed 6 points
Stringing feature edges : changed 6 points
Stringing feature edges : changed 14 points
Stringing feature edges : changed 10 points
Stringing feature edges : changed 7 points
Stringing feature edges : changed 7 points
Stringing feature edges : changed 6 points
Stringing feature edges : changed 6 points
Stringing feature edges : changed 9 points
Stringing feature edges : changed 10 points
Stringing feature edges : changed 10 points
Stringing feature edges : changed 9 points
Stringing feature edges : changed 9 points
Stringing feature edges : changed 9 points
Stringing feature edges : changed 9 points
Stringing feature edges : changed 11 points
Stringing feature edges : changed 10 points
Stringing feature edges : changed 9 points
Stringing feature edges : changed 9 points
Stringing feature edges : changed 9 points
Stringing feature edges : changed 9 points
Stringing feature edges : changed 9 points
Stringing feature edges : changed 10 points
Stringing feature edges : changed 10 points
Stringing feature edges : changed 9 points
Stringing feature edges : changed 9 points
Stringing feature edges : changed 9 points
Stringing feature edges : changed 9 points
Stringing feature edges : changed 9 points
Stringing feature edges : changed 10 points
Stringing feature edges : changed 11 points
Stringing feature edges : changed 9 points
Stringing feature edges : changed 9 points
Stringing feature edges : changed 9 points
Stringing feature edges : changed 9 points
Stringing feature edges : changed 9 points
Stringing feature edges : changed 9 points
Stringing feature edges : changed 10 points
Stringing feature edges : changed 10 points
Stringing feature edges : changed 9 points
Stringing feature edges : changed 9 points
Stringing feature edges : changed 10 points
Stringing feature edges : changed 9 points
Stringing feature edges : changed 9 points
Stringing feature edges : changed 11 points
Stringing feature edges : changed 9 points
Stringing feature edges : changed 12 points
Stringing feature edges : changed 9 points
Stringing feature edges : changed 9 points
Stringing feature edges : changed 9 points
Stringing feature edges : changed 9 points
Stringing feature edges : changed 9 points
Stringing feature edges : changed 9 points
Stringing feature edges : changed 10 points
Stringing feature edges : changed 10 points
Stringing feature edges : changed 11 points
Stringing feature edges : changed 9 points
Stringing feature edges : changed 9 points
Stringing feature edges : changed 9 points
Stringing feature edges : changed 5 points
Stringing feature edges : changed 5 points
Stringing feature edges : changed 5 points
Stringing feature edges : changed 5 points
Stringing feature edges : changed 5 points
Stringing feature edges : changed 1 points
Stringing feature edges : changed 0 points
Attraction:
     linear   : max:(0.000819703 0.00238308 -0.00668418) avg:(-6.67337e-07 3.40221e-05 0.0004314)
     feature  : max:(0.00719298 0 -0.00173329) avg:(-7.69599e-06 -2.27515e-05 7.73409e-06)
Feature analysis : total master points:14586 attraction to :
    feature point   : 2
    feature edge    : 869
    nearest surface : 0
    rest            : 13715

--> FOAM Warning : Displacement (1.66709e-05 -1.84116e-05 -1.22147e-05) at mesh point 406575 coord (5.00626 -0.239742 0.17821) points through the surrounding patch faces
Smoothing displacement ...
Iteration 0
Iteration 10
Iteration 20
Iteration 30
Iteration 40
Iteration 50
Iteration 60
Iteration 70
Iteration 80
Iteration 90
Displacement smoothed in = 3.15625 s


Moving mesh ...

Iteration 0
Moving mesh using displacement scaling : min:1  max:1
Checking faces in error :
    non-orthogonality > 70  degrees                        : 0
    faces with face-decomposition tet quality < 1e-30      : 6
    faces with concavity > 80  degrees                     : 0
    faces with skewness > 4   (internal) or 20  (boundary) : 0
    faces with interpolation weights (0..1)  < 0.05        : 0
    faces with volume ratio of neighbour cells < 0.01      : 0
    faces with face twist < 0.05                           : 0
    faces on cells with determinant < 0.001                : 0

Iteration 1
Moving mesh using displacement scaling : min:0.75  max:1
Checking faces in error :
    non-orthogonality > 70  degrees                        : 0
    faces with face-decomposition tet quality < 1e-30      : 4
    faces with concavity > 80  degrees                     : 0
    faces with skewness > 4   (internal) or 20  (boundary) : 0
    faces with interpolation weights (0..1)  < 0.05        : 0
    faces with volume ratio of neighbour cells < 0.01      : 0
    faces with face twist < 0.05                           : 0
    faces on cells with determinant < 0.001                : 0

Iteration 2
Moving mesh using displacement scaling : min:0.5625  max:1
Checking faces in error :
    non-orthogonality > 70  degrees                        : 0
    faces with face-decomposition tet quality < 1e-30      : 3
    faces with concavity > 80  degrees                     : 0
    faces with skewness > 4   (internal) or 20  (boundary) : 0
    faces with interpolation weights (0..1)  < 0.05        : 0
    faces with volume ratio of neighbour cells < 0.01      : 0
    faces with face twist < 0.05                           : 0
    faces on cells with determinant < 0.001                : 0

Iteration 3
Moving mesh using displacement scaling : min:0.421875  max:1
Checking faces in error :
    non-orthogonality > 70  degrees                        : 0
    faces with face-decomposition tet quality < 1e-30      : 1
    faces with concavity > 80  degrees                     : 0
    faces with skewness > 4   (internal) or 20  (boundary) : 0
    faces with interpolation weights (0..1)  < 0.05        : 0
    faces with volume ratio of neighbour cells < 0.01      : 0
    faces with face twist < 0.05                           : 0
    faces on cells with determinant < 0.001                : 0

Iteration 4
Moving mesh using displacement scaling : min:0.316406  max:1
Checking faces in error :
    non-orthogonality > 70  degrees                        : 0
    faces with face-decomposition tet quality < 1e-30      : 1
    faces with concavity > 80  degrees                     : 0
    faces with skewness > 4   (internal) or 20  (boundary) : 0
    faces with interpolation weights (0..1)  < 0.05        : 0
    faces with volume ratio of neighbour cells < 0.01      : 0
    faces with face twist < 0.05                           : 0
    faces on cells with determinant < 0.001                : 0

Iteration 5
Displacement scaling for error reduction set to 0.
Moving mesh using displacement scaling : min:0.237305  max:1
Checking faces in error :
    non-orthogonality > 70  degrees                        : 0
    faces with face-decomposition tet quality < 1e-30      : 1
    faces with concavity > 80  degrees                     : 0
    faces with skewness > 4   (internal) or 20  (boundary) : 0
    faces with interpolation weights (0..1)  < 0.05        : 0
    faces with volume ratio of neighbour cells < 0.01      : 0
    faces with face twist < 0.05                           : 0
    faces on cells with determinant < 0.001                : 0

Iteration 6
Moving mesh using displacement scaling : min:0  max:1
Checking faces in error :
    non-orthogonality > 70  degrees                        : 0
    faces with face-decomposition tet quality < 1e-30      : 0
    faces with concavity > 80  degrees                     : 0
    faces with skewness > 4   (internal) or 20  (boundary) : 0
    faces with interpolation weights (0..1)  < 0.05        : 0
    faces with volume ratio of neighbour cells < 0.01      : 0
    faces with face twist < 0.05                           : 0
    faces on cells with determinant < 0.001                : 0
Successfully moved mesh
Moved mesh in = 3.85938 s



Morph iteration 6
-----------------
Calculating patchDisplacement as distance to nearest surface point ...
Wanted displacement : average:0.000585056 min:8.9437e-08 max:0.00652481
Calculated surface displacement in = 0.03125 s


Detecting near surfaces ...
Overriding nearest with intersection of close gaps at 40 out of 14586 points.
Overriding displacement on features :
   implicit features    : false
   explicit features    : true
   multi-patch features : false

Detected 0 baffle edges out of 28729 edges.
Initially selected 884 points out of 14586 for reverse attraction.
Selected 1805 points out of 14586 for reverse attraction.
Stringing feature edges : changed 12 points
Stringing feature edges : changed 7 points
Stringing feature edges : changed 11 points
Stringing feature edges : changed 10 points
Stringing feature edges : changed 11 points
Stringing feature edges : changed 9 points
Stringing feature edges : changed 9 points
Stringing feature edges : changed 9 points
Stringing feature edges : changed 12 points
Stringing feature edges : changed 8 points
Stringing feature edges : changed 8 points
Stringing feature edges : changed 8 points
Stringing feature edges : changed 9 points
Stringing feature edges : changed 8 points
Stringing feature edges : changed 7 points
Stringing feature edges : changed 8 points
Stringing feature edges : changed 7 points
Stringing feature edges : changed 9 points
Stringing feature edges : changed 8 points
Stringing feature edges : changed 10 points
Stringing feature edges : changed 6 points
Stringing feature edges : changed 7 points
Stringing feature edges : changed 6 points
Stringing feature edges : changed 8 points
Stringing feature edges : changed 11 points
Stringing feature edges : changed 8 points
Stringing feature edges : changed 6 points
Stringing feature edges : changed 6 points
Stringing feature edges : changed 6 points
Stringing feature edges : changed 14 points
Stringing feature edges : changed 10 points
Stringing feature edges : changed 7 points
Stringing feature edges : changed 7 points
Stringing feature edges : changed 6 points
Stringing feature edges : changed 6 points
Stringing feature edges : changed 9 points
Stringing feature edges : changed 10 points
Stringing feature edges : changed 10 points
Stringing feature edges : changed 9 points
Stringing feature edges : changed 9 points
Stringing feature edges : changed 9 points
Stringing feature edges : changed 9 points
Stringing feature edges : changed 11 points
Stringing feature edges : changed 10 points
Stringing feature edges : changed 9 points
Stringing feature edges : changed 9 points
Stringing feature edges : changed 9 points
Stringing feature edges : changed 9 points
Stringing feature edges : changed 9 points
Stringing feature edges : changed 10 points
Stringing feature edges : changed 10 points
Stringing feature edges : changed 9 points
Stringing feature edges : changed 9 points
Stringing feature edges : changed 9 points
Stringing feature edges : changed 9 points
Stringing feature edges : changed 9 points
Stringing feature edges : changed 10 points
Stringing feature edges : changed 11 points
Stringing feature edges : changed 9 points
Stringing feature edges : changed 9 points
Stringing feature edges : changed 9 points
Stringing feature edges : changed 9 points
Stringing feature edges : changed 9 points
Stringing feature edges : changed 9 points
Stringing feature edges : changed 10 points
Stringing feature edges : changed 10 points
Stringing feature edges : changed 9 points
Stringing feature edges : changed 9 points
Stringing feature edges : changed 10 points
Stringing feature edges : changed 9 points
Stringing feature edges : changed 9 points
Stringing feature edges : changed 11 points
Stringing feature edges : changed 9 points
Stringing feature edges : changed 12 points
Stringing feature edges : changed 9 points
Stringing feature edges : changed 9 points
Stringing feature edges : changed 9 points
Stringing feature edges : changed 9 points
Stringing feature edges : changed 9 points
Stringing feature edges : changed 9 points
Stringing feature edges : changed 10 points
Stringing feature edges : changed 10 points
Stringing feature edges : changed 11 points
Stringing feature edges : changed 9 points
Stringing feature edges : changed 9 points
Stringing feature edges : changed 9 points
Stringing feature edges : changed 5 points
Stringing feature edges : changed 5 points
Stringing feature edges : changed 5 points
Stringing feature edges : changed 5 points
Stringing feature edges : changed 5 points
Stringing feature edges : changed 1 points
Stringing feature edges : changed 0 points
Attraction:
     linear   : max:(0.000803131 0.00222185 -0.00608206) avg:(-1.23545e-06 1.58414e-05 0.00018593)
     feature  : max:(-0.00259823 -0.00433382 -9.71445e-17) avg:(-6.50563e-06 -1.54323e-05 3.79583e-06)
Feature analysis : total master points:14586 attraction to :
    feature point   : 2
    feature edge    : 870
    nearest surface : 0
    rest            : 13714

--> FOAM Warning : Displacement (3.5277e-05 -9.67579e-05 -7.49759e-05) at mesh point 406575 coord (5.00628 -0.23976 0.178198) points through the surrounding patch faces
Smoothing displacement ...
Iteration 0
Iteration 10
Iteration 20
Iteration 30
Iteration 40
Iteration 50
Iteration 60
Iteration 70
Iteration 80
Iteration 90
Displacement smoothed in = 3.09375 s


Moving mesh ...

Iteration 0
Moving mesh using displacement scaling : min:1  max:1
Checking faces in error :
    non-orthogonality > 70  degrees                        : 0
    faces with face-decomposition tet quality < 1e-30      : 19
    faces with concavity > 80  degrees                     : 0
    faces with skewness > 4   (internal) or 20  (boundary) : 0
    faces with interpolation weights (0..1)  < 0.05        : 0
    faces with volume ratio of neighbour cells < 0.01      : 0
    faces with face twist < 0.05                           : 0
    faces on cells with determinant < 0.001                : 0

Iteration 1
Moving mesh using displacement scaling : min:0.75  max:1
Checking faces in error :
    non-orthogonality > 70  degrees                        : 0
    faces with face-decomposition tet quality < 1e-30      : 16
    faces with concavity > 80  degrees                     : 0
    faces with skewness > 4   (internal) or 20  (boundary) : 0
    faces with interpolation weights (0..1)  < 0.05        : 0
    faces with volume ratio of neighbour cells < 0.01      : 0
    faces with face twist < 0.05                           : 0
    faces on cells with determinant < 0.001                : 0

Iteration 2
Moving mesh using displacement scaling : min:0.5625  max:1
Checking faces in error :
    non-orthogonality > 70  degrees                        : 0
    faces with face-decomposition tet quality < 1e-30      : 11
    faces with concavity > 80  degrees                     : 0
    faces with skewness > 4   (internal) or 20  (boundary) : 0
    faces with interpolation weights (0..1)  < 0.05        : 0
    faces with volume ratio of neighbour cells < 0.01      : 0
    faces with face twist < 0.05                           : 0
    faces on cells with determinant < 0.001                : 0

Iteration 3
Moving mesh using displacement scaling : min:0.421875  max:1
Checking faces in error :
    non-orthogonality > 70  degrees                        : 0
    faces with face-decomposition tet quality < 1e-30      : 10
    faces with concavity > 80  degrees                     : 0
    faces with skewness > 4   (internal) or 20  (boundary) : 0
    faces with interpolation weights (0..1)  < 0.05        : 0
    faces with volume ratio of neighbour cells < 0.01      : 0
    faces with face twist < 0.05                           : 0
    faces on cells with determinant < 0.001                : 0

Iteration 4
Moving mesh using displacement scaling : min:0.316406  max:1
Checking faces in error :
    non-orthogonality > 70  degrees                        : 0
    faces with face-decomposition tet quality < 1e-30      : 8
    faces with concavity > 80  degrees                     : 0
    faces with skewness > 4   (internal) or 20  (boundary) : 0
    faces with interpolation weights (0..1)  < 0.05        : 0
    faces with volume ratio of neighbour cells < 0.01      : 0
    faces with face twist < 0.05                           : 0
    faces on cells with determinant < 0.001                : 0

Iteration 5
Displacement scaling for error reduction set to 0.
Moving mesh using displacement scaling : min:0.237305  max:1
Checking faces in error :
    non-orthogonality > 70  degrees                        : 0
    faces with face-decomposition tet quality < 1e-30      : 8
    faces with concavity > 80  degrees                     : 0
    faces with skewness > 4   (internal) or 20  (boundary) : 0
    faces with interpolation weights (0..1)  < 0.05        : 0
    faces with volume ratio of neighbour cells < 0.01      : 0
    faces with face twist < 0.05                           : 0
    faces on cells with determinant < 0.001                : 0

Iteration 6
Moving mesh using displacement scaling : min:0  max:1
Checking faces in error :
    non-orthogonality > 70  degrees                        : 0
    faces with face-decomposition tet quality < 1e-30      : 0
    faces with concavity > 80  degrees                     : 0
    faces with skewness > 4   (internal) or 20  (boundary) : 0
    faces with interpolation weights (0..1)  < 0.05        : 0
    faces with volume ratio of neighbour cells < 0.01      : 0
    faces with face twist < 0.05                           : 0
    faces on cells with determinant < 0.001                : 0
Successfully moved mesh
Moved mesh in = 3.96875 s



Morph iteration 7
-----------------
Calculating patchDisplacement as distance to nearest surface point ...
Wanted displacement : average:0.000275204 min:5.05975e-08 max:0.00574832
Calculated surface displacement in = 0.015625 s


Detecting near surfaces ...
Overriding nearest with intersection of close gaps at 39 out of 14586 points.
Overriding displacement on features :
   implicit features    : false
   explicit features    : true
   multi-patch features : false

Detected 0 baffle edges out of 28729 edges.
Initially selected 883 points out of 14586 for reverse attraction.
Selected 1805 points out of 14586 for reverse attraction.
Stringing feature edges : changed 11 points
Stringing feature edges : changed 7 points
Stringing feature edges : changed 11 points
Stringing feature edges : changed 10 points
Stringing feature edges : changed 11 points
Stringing feature edges : changed 9 points
Stringing feature edges : changed 9 points
Stringing feature edges : changed 9 points
Stringing feature edges : changed 12 points
Stringing feature edges : changed 8 points
Stringing feature edges : changed 8 points
Stringing feature edges : changed 8 points
Stringing feature edges : changed 9 points
Stringing feature edges : changed 8 points
Stringing feature edges : changed 7 points
Stringing feature edges : changed 8 points
Stringing feature edges : changed 7 points
Stringing feature edges : changed 9 points
Stringing feature edges : changed 8 points
Stringing feature edges : changed 10 points
Stringing feature edges : changed 6 points
Stringing feature edges : changed 7 points
Stringing feature edges : changed 6 points
Stringing feature edges : changed 8 points
Stringing feature edges : changed 11 points
Stringing feature edges : changed 8 points
Stringing feature edges : changed 6 points
Stringing feature edges : changed 6 points
Stringing feature edges : changed 6 points
Stringing feature edges : changed 14 points
Stringing feature edges : changed 10 points
Stringing feature edges : changed 7 points
Stringing feature edges : changed 7 points
Stringing feature edges : changed 6 points
Stringing feature edges : changed 6 points
Stringing feature edges : changed 9 points
Stringing feature edges : changed 10 points
Stringing feature edges : changed 10 points
Stringing feature edges : changed 9 points
Stringing feature edges : changed 9 points
Stringing feature edges : changed 9 points
Stringing feature edges : changed 9 points
Stringing feature edges : changed 11 points
Stringing feature edges : changed 10 points
Stringing feature edges : changed 9 points
Stringing feature edges : changed 9 points
Stringing feature edges : changed 9 points
Stringing feature edges : changed 9 points
Stringing feature edges : changed 9 points
Stringing feature edges : changed 10 points
Stringing feature edges : changed 10 points
Stringing feature edges : changed 9 points
Stringing feature edges : changed 9 points
Stringing feature edges : changed 9 points
Stringing feature edges : changed 9 points
Stringing feature edges : changed 9 points
Stringing feature edges : changed 10 points
Stringing feature edges : changed 11 points
Stringing feature edges : changed 9 points
Stringing feature edges : changed 9 points
Stringing feature edges : changed 9 points
Stringing feature edges : changed 9 points
Stringing feature edges : changed 9 points
Stringing feature edges : changed 9 points
Stringing feature edges : changed 10 points
Stringing feature edges : changed 10 points
Stringing feature edges : changed 9 points
Stringing feature edges : changed 9 points
Stringing feature edges : changed 10 points
Stringing feature edges : changed 9 points
Stringing feature edges : changed 9 points
Stringing feature edges : changed 11 points
Stringing feature edges : changed 9 points
Stringing feature edges : changed 12 points
Stringing feature edges : changed 9 points
Stringing feature edges : changed 9 points
Stringing feature edges : changed 9 points
Stringing feature edges : changed 9 points
Stringing feature edges : changed 9 points
Stringing feature edges : changed 9 points
Stringing feature edges : changed 10 points
Stringing feature edges : changed 10 points
Stringing feature edges : changed 11 points
Stringing feature edges : changed 9 points
Stringing feature edges : changed 9 points
Stringing feature edges : changed 9 points
Stringing feature edges : changed 5 points
Stringing feature edges : changed 5 points
Stringing feature edges : changed 5 points
Stringing feature edges : changed 5 points
Stringing feature edges : changed 5 points
Stringing feature edges : changed 1 points
Stringing feature edges : changed 0 points
Attraction:
     linear   : max:(0.000707554 0.00195744 -0.00535826) avg:(-9.37236e-07 4.68663e-06 6.21634e-05)
     feature  : max:(-0.0066425 0.00504921 -0.00349972) avg:(-5.17034e-06 -9.64752e-06 1.05123e-06)
Feature analysis : total master points:14586 attraction to :
    feature point   : 2
    feature edge    : 870
    nearest surface : 0
    rest            : 13714

--> FOAM Warning : Displacement (3.0326e-05 -9.69417e-05 -7.60695e-05) at mesh point 406575 coord (5.00631 -0.239857 0.178123) points through the surrounding patch faces
Smoothing displacement ...
Iteration 0
Iteration 10
Iteration 20
Iteration 30
Iteration 40
Iteration 50
Iteration 60
Iteration 70
Iteration 80
Iteration 90
Displacement smoothed in = 3.15625 s


Moving mesh ...

Iteration 0
Moving mesh using displacement scaling : min:1  max:1
Checking faces in error :
    non-orthogonality > 70  degrees                        : 0
    faces with face-decomposition tet quality < 1e-30      : 32
    faces with concavity > 80  degrees                     : 0
    faces with skewness > 4   (internal) or 20  (boundary) : 0
    faces with interpolation weights (0..1)  < 0.05        : 0
    faces with volume ratio of neighbour cells < 0.01      : 0
    faces with face twist < 0.05                           : 1
    faces on cells with determinant < 0.001                : 0

Iteration 1
Moving mesh using displacement scaling : min:0.75  max:1
Checking faces in error :
    non-orthogonality > 70  degrees                        : 0
    faces with face-decomposition tet quality < 1e-30      : 30
    faces with concavity > 80  degrees                     : 0
    faces with skewness > 4   (internal) or 20  (boundary) : 0
    faces with interpolation weights (0..1)  < 0.05        : 0
    faces with volume ratio of neighbour cells < 0.01      : 0
    faces with face twist < 0.05                           : 1
    faces on cells with determinant < 0.001                : 0

Iteration 2
Moving mesh using displacement scaling : min:0.5625  max:1
Checking faces in error :
    non-orthogonality > 70  degrees                        : 0
    faces with face-decomposition tet quality < 1e-30      : 28
    faces with concavity > 80  degrees                     : 0
    faces with skewness > 4   (internal) or 20  (boundary) : 0
    faces with interpolation weights (0..1)  < 0.05        : 0
    faces with volume ratio of neighbour cells < 0.01      : 0
    faces with face twist < 0.05                           : 0
    faces on cells with determinant < 0.001                : 0

Iteration 3
Moving mesh using displacement scaling : min:0.421875  max:1
Checking faces in error :
    non-orthogonality > 70  degrees                        : 0
    faces with face-decomposition tet quality < 1e-30      : 25
    faces with concavity > 80  degrees                     : 0
    faces with skewness > 4   (internal) or 20  (boundary) : 0
    faces with interpolation weights (0..1)  < 0.05        : 0
    faces with volume ratio of neighbour cells < 0.01      : 0
    faces with face twist < 0.05                           : 0
    faces on cells with determinant < 0.001                : 0

Iteration 4
Moving mesh using displacement scaling : min:0.316406  max:1
Checking faces in error :
    non-orthogonality > 70  degrees                        : 0
    faces with face-decomposition tet quality < 1e-30      : 23
    faces with concavity > 80  degrees                     : 0
    faces with skewness > 4   (internal) or 20  (boundary) : 0
    faces with interpolation weights (0..1)  < 0.05        : 0
    faces with volume ratio of neighbour cells < 0.01      : 0
    faces with face twist < 0.05                           : 0
    faces on cells with determinant < 0.001                : 0

Iteration 5
Displacement scaling for error reduction set to 0.
Moving mesh using displacement scaling : min:0.237305  max:1
Checking faces in error :
    non-orthogonality > 70  degrees                        : 0
    faces with face-decomposition tet quality < 1e-30      : 21
    faces with concavity > 80  degrees                     : 0
    faces with skewness > 4   (internal) or 20  (boundary) : 0
    faces with interpolation weights (0..1)  < 0.05        : 0
    faces with volume ratio of neighbour cells < 0.01      : 0
    faces with face twist < 0.05                           : 0
    faces on cells with determinant < 0.001                : 0

Iteration 6
Moving mesh using displacement scaling : min:0  max:1
Checking faces in error :
    non-orthogonality > 70  degrees                        : 0
    faces with face-decomposition tet quality < 1e-30      : 0
    faces with concavity > 80  degrees                     : 0
    faces with skewness > 4   (internal) or 20  (boundary) : 0
    faces with interpolation weights (0..1)  < 0.05        : 0
    faces with volume ratio of neighbour cells < 0.01      : 0
    faces with face twist < 0.05                           : 0
    faces on cells with determinant < 0.001                : 0
Successfully moved mesh
Moved mesh in = 4.07812 s



Morph iteration 8
-----------------
Calculating patchDisplacement as distance to nearest surface point ...
Wanted displacement : average:0.000105762 min:6.12134e-09 max:0.00542974
Calculated surface displacement in = 0.03125 s


Detecting near surfaces ...
Overriding nearest with intersection of close gaps at 40 out of 14586 points.
Overriding displacement on features :
   implicit features    : false
   explicit features    : true
   multi-patch features : false

Detected 0 baffle edges out of 28729 edges.
Initially selected 884 points out of 14586 for reverse attraction.
Selected 1805 points out of 14586 for reverse attraction.
Stringing feature edges : changed 11 points
Stringing feature edges : changed 7 points
Stringing feature edges : changed 11 points
Stringing feature edges : changed 10 points
Stringing feature edges : changed 11 points
Stringing feature edges : changed 9 points
Stringing feature edges : changed 9 points
Stringing feature edges : changed 9 points
Stringing feature edges : changed 12 points
Stringing feature edges : changed 8 points
Stringing feature edges : changed 8 points
Stringing feature edges : changed 8 points
Stringing feature edges : changed 9 points
Stringing feature edges : changed 8 points
Stringing feature edges : changed 7 points
Stringing feature edges : changed 8 points
Stringing feature edges : changed 7 points
Stringing feature edges : changed 9 points
Stringing feature edges : changed 8 points
Stringing feature edges : changed 10 points
Stringing feature edges : changed 6 points
Stringing feature edges : changed 7 points
Stringing feature edges : changed 6 points
Stringing feature edges : changed 8 points
Stringing feature edges : changed 11 points
Stringing feature edges : changed 8 points
Stringing feature edges : changed 6 points
Stringing feature edges : changed 6 points
Stringing feature edges : changed 6 points
Stringing feature edges : changed 14 points
Stringing feature edges : changed 10 points
Stringing feature edges : changed 7 points
Stringing feature edges : changed 7 points
Stringing feature edges : changed 6 points
Stringing feature edges : changed 6 points
Stringing feature edges : changed 9 points
Stringing feature edges : changed 10 points
Stringing feature edges : changed 10 points
Stringing feature edges : changed 9 points
Stringing feature edges : changed 9 points
Stringing feature edges : changed 9 points
Stringing feature edges : changed 9 points
Stringing feature edges : changed 11 points
Stringing feature edges : changed 10 points
Stringing feature edges : changed 9 points
Stringing feature edges : changed 9 points
Stringing feature edges : changed 9 points
Stringing feature edges : changed 9 points
Stringing feature edges : changed 9 points
Stringing feature edges : changed 10 points
Stringing feature edges : changed 10 points
Stringing feature edges : changed 9 points
Stringing feature edges : changed 9 points
Stringing feature edges : changed 9 points
Stringing feature edges : changed 9 points
Stringing feature edges : changed 9 points
Stringing feature edges : changed 10 points
Stringing feature edges : changed 11 points
Stringing feature edges : changed 9 points
Stringing feature edges : changed 9 points
Stringing feature edges : changed 9 points
Stringing feature edges : changed 9 points
Stringing feature edges : changed 9 points
Stringing feature edges : changed 9 points
Stringing feature edges : changed 10 points
Stringing feature edges : changed 10 points
Stringing feature edges : changed 9 points
Stringing feature edges : changed 9 points
Stringing feature edges : changed 10 points
Stringing feature edges : changed 9 points
Stringing feature edges : changed 9 points
Stringing feature edges : changed 11 points
Stringing feature edges : changed 9 points
Stringing feature edges : changed 12 points
Stringing feature edges : changed 9 points
Stringing feature edges : changed 9 points
Stringing feature edges : changed 9 points
Stringing feature edges : changed 9 points
Stringing feature edges : changed 9 points
Stringing feature edges : changed 9 points
Stringing feature edges : changed 10 points
Stringing feature edges : changed 10 points
Stringing feature edges : changed 11 points
Stringing feature edges : changed 9 points
Stringing feature edges : changed 9 points
Stringing feature edges : changed 9 points
Stringing feature edges : changed 5 points
Stringing feature edges : changed 5 points
Stringing feature edges : changed 5 points
Stringing feature edges : changed 5 points
Stringing feature edges : changed 5 points
Stringing feature edges : changed 1 points
Stringing feature edges : changed 0 points
Attraction:
     linear   : max:(-0.00018144 -0.000600338 -0.0053934) avg:(-5.64574e-07 -2.26552e-07 1.55934e-05)
     feature  : max:(-0.000219023 0 0.00388239) avg:(-3.28281e-06 -6.62476e-06 2.19607e-07)
Feature analysis : total master points:14586 attraction to :
    feature point   : 2
    feature edge    : 870
    nearest surface : 0
    rest            : 13714

--> FOAM Warning : Displacement (-9.54825e-08 -2.491e-07 -8.87392e-06) at mesh point 406509 coord (2.00012 -0.234025 0.000838968) points through the surrounding patch faces
Smoothing displacement ...
Iteration 0
Iteration 10
Iteration 20
Iteration 30
Iteration 40
Iteration 50
Iteration 60
Iteration 70
Iteration 80
Iteration 90
Displacement smoothed in = 3.10938 s


Moving mesh ...

Iteration 0
Moving mesh using displacement scaling : min:1  max:1
Checking faces in error :
    non-orthogonality > 70  degrees                        : 0
    faces with face-decomposition tet quality < 1e-30      : 37
    faces with concavity > 80  degrees                     : 0
    faces with skewness > 4   (internal) or 20  (boundary) : 0
    faces with interpolation weights (0..1)  < 0.05        : 0
    faces with volume ratio of neighbour cells < 0.01      : 0
    faces with face twist < 0.05                           : 0
    faces on cells with determinant < 0.001                : 0

Iteration 1
Moving mesh using displacement scaling : min:0.75  max:1
Checking faces in error :
    non-orthogonality > 70  degrees                        : 0
    faces with face-decomposition tet quality < 1e-30      : 35
    faces with concavity > 80  degrees                     : 0
    faces with skewness > 4   (internal) or 20  (boundary) : 0
    faces with interpolation weights (0..1)  < 0.05        : 0
    faces with volume ratio of neighbour cells < 0.01      : 0
    faces with face twist < 0.05                           : 1
    faces on cells with determinant < 0.001                : 0

Iteration 2
Moving mesh using displacement scaling : min:0.5625  max:1
Checking faces in error :
    non-orthogonality > 70  degrees                        : 0
    faces with face-decomposition tet quality < 1e-30      : 35
    faces with concavity > 80  degrees                     : 0
    faces with skewness > 4   (internal) or 20  (boundary) : 0
    faces with interpolation weights (0..1)  < 0.05        : 0
    faces with volume ratio of neighbour cells < 0.01      : 0
    faces with face twist < 0.05                           : 1
    faces on cells with determinant < 0.001                : 0

Iteration 3
Moving mesh using displacement scaling : min:0.421875  max:1
Checking faces in error :
    non-orthogonality > 70  degrees                        : 0
    faces with face-decomposition tet quality < 1e-30      : 35
    faces with concavity > 80  degrees                     : 0
    faces with skewness > 4   (internal) or 20  (boundary) : 0
    faces with interpolation weights (0..1)  < 0.05        : 0
    faces with volume ratio of neighbour cells < 0.01      : 0
    faces with face twist < 0.05                           : 1
    faces on cells with determinant < 0.001                : 0

Iteration 4
Moving mesh using displacement scaling : min:0.316406  max:1
Checking faces in error :
[...]
truncateDisplacement : Unextruded 0 faces due to stringed edges with inconsistent extrusion.

Setting up information for layer truncation ...

Checking mesh with layer ...
Checking faces in error :
    non-orthogonality > 70  degrees                        : 1
    faces with face-decomposition tet quality < 1e-30      : 7
    faces with concavity > 80  degrees                     : 0
    faces with skewness > 4   (internal) or 20  (boundary) : 0
    faces with interpolation weights (0..1)  < 0.05        : 0
    faces with volume ratio of neighbour cells < 0.01      : 0
    faces with face twist < 0.05                           : 1
    faces on cells with determinant < 0.001                : 0
Detected 9 illegal faces (concave, zero area or negative cell pyramid volume)
Extruding 11226 out of 11326 faces (99.1171%). Removed extrusion at 8 faces.
Added 33242 out of 33978 cells (97.8339%).


Layer addition iteration 2
--------------------------

Determining displacement for added points according to pointNormal ...
Detected 0 points with point normal pointing through faces.
Reset displacement at 0 points to average of surrounding points.

displacementMedialAxis : Smoothing using Medial Axis ...
displacementMedialAxis : Reducing layer thickness at 123 nodes where thickness to medial axis distance is large 
displacementMedialAxis : Removing isolated regions ...
displacementMedialAxis : Number of isolated points extrusion stopped : 6
displacementMedialAxis : Smoothing field ...
    Iteration 0   residual 4.31348e-05
displacementMedialAxis : Moving mesh ...
displacementMedialAxis : Iteration 0
Moving mesh using displacement scaling : min:1  max:1
Checking faces in error :
    non-orthogonality > 70  degrees                        : 29
    faces with face-decomposition tet quality < 1e-30      : 23
    faces with concavity > 80  degrees                     : 0
    faces with skewness > 4   (internal) or 20  (boundary) : 0
    faces with interpolation weights (0..1)  < 0.05        : 0
    faces with volume ratio of neighbour cells < 0.01      : 0
    faces with face twist < 0.05                           : 1
    faces on cells with determinant < 0.001                : 0
displacementMedialAxis : Iteration 1
Moving mesh using displacement scaling : min:0.75  max:1
Checking faces in error :
    non-orthogonality > 70  degrees                        : 13
    faces with face-decomposition tet quality < 1e-30      : 1
    faces with concavity > 80  degrees                     : 0
    faces with skewness > 4   (internal) or 20  (boundary) : 0
    faces with interpolation weights (0..1)  < 0.05        : 0
    faces with volume ratio of neighbour cells < 0.01      : 0
    faces with face twist < 0.05                           : 0
    faces on cells with determinant < 0.001                : 0
displacementMedialAxis : Iteration 2
Moving mesh using displacement scaling : min:0.5625  max:1
Checking faces in error :
    non-orthogonality > 70  degrees                        : 2
    faces with face-decomposition tet quality < 1e-30      : 1
    faces with concavity > 80  degrees                     : 0
    faces with skewness > 4   (internal) or 20  (boundary) : 0
    faces with interpolation weights (0..1)  < 0.05        : 0
    faces with volume ratio of neighbour cells < 0.01      : 0
    faces with face twist < 0.05                           : 0
    faces on cells with determinant < 0.001                : 0
displacementMedialAxis : Iteration 3
Moving mesh using displacement scaling : min:0.421875  max:1
Checking faces in error :
    non-orthogonality > 70  degrees                        : 0
    faces with face-decomposition tet quality < 1e-30      : 1
    faces with concavity > 80  degrees                     : 0
    faces with skewness > 4   (internal) or 20  (boundary) : 0
    faces with interpolation weights (0..1)  < 0.05        : 0
    faces with volume ratio of neighbour cells < 0.01      : 0
    faces with face twist < 0.05                           : 0
    faces on cells with determinant < 0.001                : 0
displacementMedialAxis : Iteration 4
Moving mesh using displacement scaling : min:0.316406  max:1
Checking faces in error :
    non-orthogonality > 70  degrees                        : 0
    faces with face-decomposition tet quality < 1e-30      : 1
    faces with concavity > 80  degrees                     : 0
    faces with skewness > 4   (internal) or 20  (boundary) : 0
    faces with interpolation weights (0..1)  < 0.05        : 0
    faces with volume ratio of neighbour cells < 0.01      : 0
    faces with face twist < 0.05                           : 0
    faces on cells with determinant < 0.001                : 0
displacementMedialAxis : Iteration 5
displacementMedialAxis : Displacement scaling for error reduction set to 0.
Moving mesh using displacement scaling : min:0.237305  max:1
Checking faces in error :
    non-orthogonality > 70  degrees                        : 0
    faces with face-decomposition tet quality < 1e-30      : 1
    faces with concavity > 80  degrees                     : 0
    faces with skewness > 4   (internal) or 20  (boundary) : 0
    faces with interpolation weights (0..1)  < 0.05        : 0
    faces with volume ratio of neighbour cells < 0.01      : 0
    faces with face twist < 0.05                           : 0
    faces on cells with determinant < 0.001                : 0
displacementMedialAxis : Iteration 6
Moving mesh using displacement scaling : min:0  max:1
Checking faces in error :
    non-orthogonality > 70  degrees                        : 0
    faces with face-decomposition tet quality < 1e-30      : 1
    faces with concavity > 80  degrees                     : 0
    faces with skewness > 4   (internal) or 20  (boundary) : 0
    faces with interpolation weights (0..1)  < 0.05        : 0
    faces with volume ratio of neighbour cells < 0.01      : 0
    faces with face twist < 0.05                           : 0
    faces on cells with determinant < 0.001                : 0
displacementMedialAxis : Iteration 7
Moving mesh using displacement scaling : min:0  max:1
Checking faces in error :
    non-orthogonality > 70  degrees                        : 0
    faces with face-decomposition tet quality < 1e-30      : 1
    faces with concavity > 80  degrees                     : 0
    faces with skewness > 4   (internal) or 20  (boundary) : 0
    faces with interpolation weights (0..1)  < 0.05        : 0
    faces with volume ratio of neighbour cells < 0.01      : 0
    faces with face twist < 0.05                           : 0
    faces on cells with determinant < 0.001                : 0
displacementMedialAxis : Iteration 8
Moving mesh using displacement scaling : min:0  max:1
Checking faces in error :
    non-orthogonality > 70  degrees                        : 0
    faces with face-decomposition tet quality < 1e-30      : 0
    faces with concavity > 80  degrees                     : 0
    faces with skewness > 4   (internal) or 20  (boundary) : 0
    faces with interpolation weights (0..1)  < 0.05        : 0
    faces with volume ratio of neighbour cells < 0.01      : 0
    faces with face twist < 0.05                           : 0
    faces on cells with determinant < 0.001                : 0
displacementMedialAxis : Successfully moved mesh
displacementMedialAxis : Finished moving mesh ...
truncateDisplacement : Unextruded 0 faces due to non-consecutive vertices being extruded.
truncateDisplacement : Unextruded 0 faces due to stringed edges with inconsistent extrusion.

Setting up information for layer truncation ...

Checking mesh with layer ...
Checking faces in error :
    non-orthogonality > 70  degrees                        : 0
    faces with face-decomposition tet quality < 1e-30      : 3
    faces with concavity > 80  degrees                     : 0
    faces with skewness > 4   (internal) or 20  (boundary) : 0
    faces with interpolation weights (0..1)  < 0.05        : 0
    faces with volume ratio of neighbour cells < 0.01      : 0
    faces with face twist < 0.05                           : 0
    faces on cells with determinant < 0.001                : 0
Detected 3 illegal faces (concave, zero area or negative cell pyramid volume)
Extruding 11207 out of 11326 faces (98.9493%). Removed extrusion at 3 faces.
Added 33151 out of 33978 cells (97.5661%).


Layer addition iteration 3
--------------------------

Determining displacement for added points according to pointNormal ...
Detected 0 points with point normal pointing through faces.
Reset displacement at 0 points to average of surrounding points.

displacementMedialAxis : Smoothing using Medial Axis ...
displacementMedialAxis : Reducing layer thickness at 121 nodes where thickness to medial axis distance is large 
displacementMedialAxis : Removing isolated regions ...
displacementMedialAxis : Number of isolated points extrusion stopped : 2
displacementMedialAxis : Smoothing field ...
    Iteration 0   residual 4.53534e-05
displacementMedialAxis : Moving mesh ...
displacementMedialAxis : Iteration 0
Moving mesh using displacement scaling : min:1  max:1
Checking faces in error :
    non-orthogonality > 70  degrees                        : 28
    faces with face-decomposition tet quality < 1e-30      : 22
    faces with concavity > 80  degrees                     : 0
    faces with skewness > 4   (internal) or 20  (boundary) : 0
    faces with interpolation weights (0..1)  < 0.05        : 0
    faces with volume ratio of neighbour cells < 0.01      : 0
    faces with face twist < 0.05                           : 1
    faces on cells with determinant < 0.001                : 0
displacementMedialAxis : Iteration 1
Moving mesh using displacement scaling : min:0.75  max:1
Checking faces in error :
    non-orthogonality > 70  degrees                        : 12
    faces with face-decomposition tet quality < 1e-30      : 0
    faces with concavity > 80  degrees                     : 0
    faces with skewness > 4   (internal) or 20  (boundary) : 0
    faces with interpolation weights (0..1)  < 0.05        : 0
    faces with volume ratio of neighbour cells < 0.01      : 0
    faces with face twist < 0.05                           : 0
    faces on cells with determinant < 0.001                : 0
displacementMedialAxis : Iteration 2
Moving mesh using displacement scaling : min:0.5625  max:1
Checking faces in error :
    non-orthogonality > 70  degrees                        : 3
    faces with face-decomposition tet quality < 1e-30      : 0
    faces with concavity > 80  degrees                     : 0
    faces with skewness > 4   (internal) or 20  (boundary) : 0
    faces with interpolation weights (0..1)  < 0.05        : 0
    faces with volume ratio of neighbour cells < 0.01      : 0
    faces with face twist < 0.05                           : 0
    faces on cells with determinant < 0.001                : 0
displacementMedialAxis : Iteration 3
Moving mesh using displacement scaling : min:0.421875  max:1
Checking faces in error :
    non-orthogonality > 70  degrees                        : 0
    faces with face-decomposition tet quality < 1e-30      : 0
    faces with concavity > 80  degrees                     : 0
    faces with skewness > 4   (internal) or 20  (boundary) : 0
    faces with interpolation weights (0..1)  < 0.05        : 0
    faces with volume ratio of neighbour cells < 0.01      : 0
    faces with face twist < 0.05                           : 0
    faces on cells with determinant < 0.001                : 0
displacementMedialAxis : Successfully moved mesh
displacementMedialAxis : Finished moving mesh ...
truncateDisplacement : Unextruded 0 faces due to non-consecutive vertices being extruded.
truncateDisplacement : Unextruded 0 faces due to stringed edges with inconsistent extrusion.

Setting up information for layer truncation ...

Checking mesh with layer ...
Checking faces in error :
    non-orthogonality > 70  degrees                        : 1
    faces with face-decomposition tet quality < 1e-30      : 2
    faces with concavity > 80  degrees                     : 0
    faces with skewness > 4   (internal) or 20  (boundary) : 0
    faces with interpolation weights (0..1)  < 0.05        : 0
    faces with volume ratio of neighbour cells < 0.01      : 0
    faces with face twist < 0.05                           : 0
    faces on cells with determinant < 0.001                : 0
Detected 3 illegal faces (concave, zero area or negative cell pyramid volume)
Extruding 11203 out of 11326 faces (98.914%). Removed extrusion at 3 faces.
Added 33125 out of 33978 cells (97.4896%).


Layer addition iteration 4
--------------------------

Determining displacement for added points according to pointNormal ...
Detected 0 points with point normal pointing through faces.
Reset displacement at 0 points to average of surrounding points.

displacementMedialAxis : Smoothing using Medial Axis ...
displacementMedialAxis : Reducing layer thickness at 121 nodes where thickness to medial axis distance is large 
displacementMedialAxis : Removing isolated regions ...
displacementMedialAxis : Number of isolated points extrusion stopped : 2
displacementMedialAxis : Smoothing field ...
    Iteration 0   residual 4.57714e-05
displacementMedialAxis : Moving mesh ...
displacementMedialAxis : Iteration 0
Moving mesh using displacement scaling : min:1  max:1
Checking faces in error :
    non-orthogonality > 70  degrees                        : 28
    faces with face-decomposition tet quality < 1e-30      : 23
    faces with concavity > 80  degrees                     : 0
    faces with skewness > 4   (internal) or 20  (boundary) : 0
    faces with interpolation weights (0..1)  < 0.05        : 0
    faces with volume ratio of neighbour cells < 0.01      : 0
    faces with face twist < 0.05                           : 1
    faces on cells with determinant < 0.001                : 0
displacementMedialAxis : Iteration 1
Moving mesh using displacement scaling : min:0.75  max:1
Checking faces in error :
    non-orthogonality > 70  degrees                        : 12
    faces with face-decomposition tet quality < 1e-30      : 1
    faces with concavity > 80  degrees                     : 0
    faces with skewness > 4   (internal) or 20  (boundary) : 0
    faces with interpolation weights (0..1)  < 0.05        : 0
    faces with volume ratio of neighbour cells < 0.01      : 0
    faces with face twist < 0.05                           : 0
    faces on cells with determinant < 0.001                : 0
displacementMedialAxis : Iteration 2
Moving mesh using displacement scaling : min:0.5625  max:1
Checking faces in error :
    non-orthogonality > 70  degrees                        : 3
    faces with face-decomposition tet quality < 1e-30      : 1
    faces with concavity > 80  degrees                     : 0
    faces with skewness > 4   (internal) or 20  (boundary) : 0
    faces with interpolation weights (0..1)  < 0.05        : 0
    faces with volume ratio of neighbour cells < 0.01      : 0
    faces with face twist < 0.05                           : 0
    faces on cells with determinant < 0.001                : 0
displacementMedialAxis : Iteration 3
Moving mesh using displacement scaling : min:0.421875  max:1
Checking faces in error :
    non-orthogonality > 70  degrees                        : 0
    faces with face-decomposition tet quality < 1e-30      : 1
    faces with concavity > 80  degrees                     : 0
    faces with skewness > 4   (internal) or 20  (boundary) : 0
    faces with interpolation weights (0..1)  < 0.05        : 0
    faces with volume ratio of neighbour cells < 0.01      : 0
    faces with face twist < 0.05                           : 0
    faces on cells with determinant < 0.001                : 0
displacementMedialAxis : Iteration 4
Moving mesh using displacement scaling : min:0.316406  max:1
Checking faces in error :
    non-orthogonality > 70  degrees                        : 0
    faces with face-decomposition tet quality < 1e-30      : 1
    faces with concavity > 80  degrees                     : 0
    faces with skewness > 4   (internal) or 20  (boundary) : 0
    faces with interpolation weights (0..1)  < 0.05        : 0
    faces with volume ratio of neighbour cells < 0.01      : 0
    faces with face twist < 0.05                           : 0
    faces on cells with determinant < 0.001                : 0
displacementMedialAxis : Iteration 5
displacementMedialAxis : Displacement scaling for error reduction set to 0.
Moving mesh using displacement scaling : min:0.237305  max:1
Checking faces in error :
    non-orthogonality > 70  degrees                        : 0
    faces with face-decomposition tet quality < 1e-30      : 1
    faces with concavity > 80  degrees                     : 0
    faces with skewness > 4   (internal) or 20  (boundary) : 0
    faces with interpolation weights (0..1)  < 0.05        : 0
    faces with volume ratio of neighbour cells < 0.01      : 0
    faces with face twist < 0.05                           : 0
    faces on cells with determinant < 0.001                : 0
displacementMedialAxis : Iteration 6
Moving mesh using displacement scaling : min:0  max:1
Checking faces in error :
    non-orthogonality > 70  degrees                        : 0
    faces with face-decomposition tet quality < 1e-30      : 0
    faces with concavity > 80  degrees                     : 0
    faces with skewness > 4   (internal) or 20  (boundary) : 0
    faces with interpolation weights (0..1)  < 0.05        : 0
    faces with volume ratio of neighbour cells < 0.01      : 0
    faces with face twist < 0.05                           : 0
    faces on cells with determinant < 0.001                : 0
displacementMedialAxis : Successfully moved mesh
displacementMedialAxis : Finished moving mesh ...
truncateDisplacement : Unextruded 0 faces due to non-consecutive vertices being extruded.
truncateDisplacement : Unextruded 0 faces due to stringed edges with inconsistent extrusion.

Setting up information for layer truncation ...

Checking mesh with layer ...
Checking faces in error :
    non-orthogonality > 70  degrees                        : 0
    faces with face-decomposition tet quality < 1e-30      : 0
    faces with concavity > 80  degrees                     : 0
    faces with skewness > 4   (internal) or 20  (boundary) : 0
    faces with interpolation weights (0..1)  < 0.05        : 0
    faces with volume ratio of neighbour cells < 0.01      : 0
    faces with face twist < 0.05                           : 0
    faces on cells with determinant < 0.001                : 0
Detected 0 illegal faces (concave, zero area or negative cell pyramid volume)
Extruding 11201 out of 11326 faces (98.8963%). Removed extrusion at 0 faces.
Added 33101 out of 33978 cells (97.4189%).
Edge intersection testing:
    Number of edges             : 1547108
    Number of edges to retest   : 0
    Number of intersected edges : 44418

patch faces    layers   overall thickness
                       [m]       [%]
----- -----    ------   ---       ---
hull 11326    2.92     0.0199    96.3    

Layer mesh : cells:501091  faces:1547108  points:546245
Cells per refinement level:
    0	501091
Writing mesh to time constant
Wrote mesh in = 47.1719 s.
Layers added in = 47.1719 s.
Checking final mesh ...
Checking faces in error :
    non-orthogonality > 70  degrees                        : 0
    faces with face-decomposition tet quality < 1e-30      : 0
    faces with concavity > 80  degrees                     : 0
    faces with skewness > 4   (internal) or 20  (boundary) : 0
    faces with interpolation weights (0..1)  < 0.05        : 0
    faces with volume ratio of neighbour cells < 0.01      : 0
    faces with face twist < 0.05                           : 0
    faces on cells with determinant < 0.001                : 0
Finished meshing without any errors
Finished meshing in = 153.781 s.
End

